/*--------------------------------*- C++ -*----------------------------------*\
| =========                 |                                                 |
| \\      /  F ield         | OpenFOAM: The Open Source CFD Toolbox           |
|  \\    /   O peration     | Version:  v1812                                 |
|   \\  /    A nd           | Web:      www.OpenFOAM.com                      |
|    \\/     M anipulation  |                                                 |
\*---------------------------------------------------------------------------*/
FoamFile
{
    version     2.0;
    format      ascii;
    class       dictionary;
    object      blockMeshDict;
}
// * * * * * * * * * * * * * * * * * * * * * * * * * * * * * * * * * * * * * //

convertToMeters 0.01;

vertices
(
    ( -125 -125 -100)
    (  125 -125 -100)
    (  125  125 -100)
    ( -125  125 -100)
    ( -125 -125 140)
    (  125 -125 140)
    (  125  125 140)
    ( -125  125 140)
);

blocks
(
    hex (0 1 2 3 4 5 6 7) (77 55 44) simpleGrading (1 1 1)  
	// x-direction expansion ratio70  
	/*(
		(0.1 0.325 100)            
        (0.8 0.25 1)  
        (0.1 0.325 0.01)
    )          
       y-direction expansion ratio
    (  
		(0.1 0.325 100)            
        (0.8 0.25 1)  
        (0.1 0.325 0.01)
    )
     z-direction expansion ratio85 
     
 	(  
		(0.1 0.325 100)   			
		(0.8 0.25 1)  
		(0.1 0.325 0.01)
    )	 
)/**/
);

edges
(
);

boundary
(
    allBoundary
    {
        type wall;
        faces
        (
            (3 7 6 2)
            (0 4 7 3)
            (2 6 5 1)
            (1 5 4 0)
            (0 3 2 1)
            (4 5 6 7)
        );
    }
);

// ************************************************************************* //
