/*--------------------------------*- C++ -*----------------------------------*\
| =========                 |                                                 |
| \\      /  F ield         | OpenFOAM: The Open Source CFD Toolbox           |
|  \\    /   O peration     | Version:  v1606+                                |
|   \\  /    A nd           | Web:      www.OpenFOAM.com                      |
|    \\/     M anipulation  |                                                 |
\*---------------------------------------------------------------------------*/
FoamFile
{
    version     2.0;
    format      ascii;
    class       dictionary;
    location    "constant";
    object      transportProperties;
}
// * * * * * * * * * * * * * * * * * * * * * * * * * * * * * * * * * * * * * //
//phases (water air);									// Definition der Phasen; können auch andere Begriffe sein

//water
{
    //nu              [0 2 -1 0 0 0 0] 2.93e-06;
    rho             [1 -3 0 0 0 0 0] 2400;/**/
    transportModel  powerLaw;
    powerLawCoeffs
    {
        k        [ 0 2 -1 0 0 0 0 ] 0.01765;
        n        [ 0 0  0 0 0 0 0 ] 0.35312;
        nuMin    [ 0 2 -1 0 0 0 0 ] 7.73e-04;
        nuMax    [ 0 2 -1 0 0 0 0 ] 0.3405;
    }
}
/*{
    transportModel  Newtonian;
    nu              [0 2 -1 0 0 0 0] 3.9e-06;
    rho             [1 -3 0 0 0 0 0] 1025;
}/**/

/*air
{
    transportModel  Newtonian;						
    nu              [0 2 -1 0 0 0 0] 15.35e-6;		
    rho             [1 -3 0 0 0 0 0] 1.188;			
}

sigma           [1 0 -2 0 0 0 0] 72.75e-3;					// Oberflächenspannung Suspension --> Messen

// ************************************************************************* //
